7
Properties=species:S:1:pos:R:3 dft_info=B3LYP/def2-SVPD name=PF6 mapped_smiles="[P-:1]([F:2])([F:3])([F:4])([F:5])([F:6])[F:7]" pbc="F F F"
P       -1.98431051       0.40254737       7.38197295
F       -2.98445963      -0.75454741       6.81012369
F       -1.84466729       1.01225120       5.89192642
F       -3.26735481       1.35092244       7.66562160
F       -0.99024595       1.54223135       7.95885469
F       -2.12295987      -0.23169284       8.87857701
F       -0.71397527      -0.57950471       7.11274895
7
Properties=species:S:1:pos:R:3 dft_info=B3LYP/def2-SVPD name=PF6 mapped_smiles="[P-:1]([F:2])([F:3])([F:4])([F:5])([F:6])[F:7]" pbc="F F F"
P       -1.99101110       0.40420440       7.37826973
F       -2.98550362      -0.77484582       6.79253975
F       -1.82390723       1.02394316       5.87537581
F       -3.26798649       1.38105895       7.69398905
F       -0.99441878       1.55985456       7.96943428
F       -2.15018609      -0.23950143       8.88803104
F       -0.71324458      -0.59150498       7.08747719
7
Properties=species:S:1:pos:R:3 dft_info=B3LYP/def2-SVPD name=PF6 mapped_smiles="[P-:1]([F:2])([F:3])([F:4])([F:5])([F:6])[F:7]" pbc="F F F"
P       -1.97414221       0.40536935       7.38496461
F       -3.07222884      -0.68069296       6.77049911
F       -1.89871554       1.07101498       5.87891644
F       -3.32183066       1.34303041       7.56952204
F       -0.91987142       1.51824145       7.99916718
F       -2.09722666      -0.26880948       8.89997684
F       -0.65390314      -0.57474938       7.15602106
7
Properties=species:S:1:pos:R:3 dft_info=B3LYP/def2-SVPD name=PF6 mapped_smiles="[P-:1]([F:2])([F:3])([F:4])([F:5])([F:6])[F:7]" pbc="F F F"
P       -1.98268504       0.40298935       7.38229099
F       -3.03034535      -0.73105913       6.78637463
F       -1.86607349       1.04282495       5.87635083
F       -3.29892183       1.35715131       7.62917991
F       -0.95371636       1.53559813       7.98132186
F       -2.11559170      -0.25384178       8.89550990
F       -0.68017981      -0.58153519       7.12969213
7
Properties=species:S:1:pos:R:3 dft_info=B3LYP/def2-SVPD name=PF6 mapped_smiles="[P-:1]([F:2])([F:3])([F:4])([F:5])([F:6])[F:7]" pbc="F F F"
P       -1.98642193       0.40442151       7.38009254
F       -3.00930997      -0.75349528       6.78802715
F       -1.84375196       1.03726114       5.87364295
F       -3.28566682       1.37223997       7.66158287
F       -0.97219504       1.55033153       7.97751361
F       -2.13487405      -0.24800981       8.89295568
F       -0.69546688      -0.58845246       7.10654267
7
Properties=species:S:1:pos:R:3 dft_info=B3LYP/def2-SVPD name=PF6 mapped_smiles="[P-:1]([F:2])([F:3])([F:4])([F:5])([F:6])[F:7]" pbc="F F F"
P       -1.98711717       0.41117167       7.37865826
F       -2.99943822      -0.74642513       6.77586048
F       -1.83299747       1.03868286       5.87353291
F       -3.27833740       1.38122608       7.67489652
F       -0.97881029       1.55461357       7.98395216
F       -2.14488126      -0.24071083       8.88776428
F       -0.70479905      -0.58512656       7.09511933
7
Properties=species:S:1:pos:R:3 dft_info=B3LYP/def2-SVPD name=PF6 mapped_smiles="[P-:1]([F:2])([F:3])([F:4])([F:5])([F:6])[F:7]" pbc="F F F"
P       -1.98886394       0.41333959       7.37559474
F       -3.00263035      -0.75401298       6.79349065
F       -1.82150742       1.07374422       5.88524768
F       -3.27671081       1.39121307       7.66328594
F       -0.97794867       1.55843523       7.97452466
F       -2.15377954      -0.25740590       8.87589503
F       -0.70759684      -0.58648658       7.09818320
7
Properties=species:S:1:pos:R:3 dft_info=B3LYP/def2-SVPD name=PF6 mapped_smiles="[P-:1]([F:2])([F:3])([F:4])([F:5])([F:6])[F:7]" pbc="F F F"
P       -1.98833846       0.41425724       7.37684192
F       -3.00305003      -0.74302884       6.77541376
F       -1.82822368       1.05655583       5.87734653
F       -3.27904064       1.38768414       7.66961813
F       -0.97660399       1.55330623       7.98752639
F       -2.14877121      -0.24581308       8.88300014
F       -0.70494371      -0.58281679       7.09637969
7
Properties=species:S:1:pos:R:3 dft_info=B3LYP/def2-SVPD name=PF6 mapped_smiles="[P-:1]([F:2])([F:3])([F:4])([F:5])([F:6])[F:7]" pbc="F F F"
P       -1.98784378       0.41420874       7.37818699
F       -3.00330456      -0.73915101       6.77080038
F       -1.82759028       1.05582805       5.87879467
F       -3.27904371       1.38689421       7.67058409
F       -0.97718924       1.55236118       7.99250430
F       -2.15121804      -0.24710104       8.88361412
F       -0.70464005      -0.58269362       7.09559707
7
Properties=species:S:1:pos:R:3 dft_info=B3LYP/def2-SVPD name=PF6 mapped_smiles="[P-:1]([F:2])([F:3])([F:4])([F:5])([F:6])[F:7]" pbc="F F F"
P       -1.98822270       0.41474629       7.37799187
F       -3.00325449      -0.73938082       6.77099594
F       -1.82670907       1.05857875       5.87942693
F       -3.27905525       1.38826535       7.67036467
F       -0.97706909       1.55265576       7.99239038
F       -2.15206945      -0.24869511       8.88251398
F       -0.70504049      -0.58260601       7.09639668
7
Properties=species:S:1:pos:R:3 dft_info=B3LYP/def2-SVPD name=PF6 mapped_smiles="[P-:1]([F:2])([F:3])([F:4])([F:5])([F:6])[F:7]" pbc="F F F"
P       -1.98879830       0.41638233       7.37786015
F       -3.00441662      -0.73590064       6.76814166
F       -1.82353953       1.06245665       5.88055856
F       -3.28008828       1.38901568       7.67152715
F       -0.97689741       1.55208969       7.99525442
F       -2.15526597      -0.24970005       8.88089976
F       -0.70512933      -0.58053905       7.09656660
7
Properties=species:S:1:pos:R:3 dft_info=B3LYP/def2-SVPD name=PF6 mapped_smiles="[P-:1]([F:2])([F:3])([F:4])([F:5])([F:6])[F:7]" pbc="F F F"
P       -1.98978962       0.41820047       7.37826155
F       -3.00153936      -0.73366431       6.76111627
F       -1.82588910       1.06902065       5.88281262
F       -3.27787618       1.39572572       7.66993137
F       -0.97935275       1.55205372       8.00161350
F       -2.15641455      -0.25234354       8.87928464
F       -0.70748435      -0.58126744       7.09911888
7
Properties=species:S:1:pos:R:3 dft_info=B3LYP/def2-SVPD name=PF6 mapped_smiles="[P-:1]([F:2])([F:3])([F:4])([F:5])([F:6])[F:7]" pbc="F F F"
P       -1.98994753       0.41930788       7.37822748
F       -3.00402759      -0.73040782       6.76092229
F       -1.82118452       1.07101740       5.88372833
F       -3.28015459       1.39354221       7.67141864
F       -0.97842411       1.55169094       8.00273573
F       -2.16016395      -0.25250229       8.87836311
F       -0.70659487      -0.57860786       7.09776008
7
Properties=species:S:1:pos:R:3 dft_info=B3LYP/def2-SVPD name=PF6 mapped_smiles="[P-:1]([F:2])([F:3])([F:4])([F:5])([F:6])[F:7]" pbc="F F F"
P       -1.99043693       0.42080981       7.37849916
F       -3.00459562      -0.72727094       6.75831363
F       -1.81898382       1.07484684       5.88541103
F       -3.28111592       1.39433093       7.67153487
F       -0.97912928       1.55160055       8.00630557
F       -2.16309315      -0.25320868       8.87736055
F       -0.70687619      -0.57691837       7.09790974
7
Properties=species:S:1:pos:R:3 dft_info=B3LYP/def2-SVPD name=PF6 mapped_smiles="[P-:1]([F:2])([F:3])([F:4])([F:5])([F:6])[F:7]" pbc="F F F"
P       -1.99122143       0.42304784       7.37903765
F       -3.00478609      -0.72328800       6.75464045
F       -1.81667004       1.08028920       5.88786666
F       -3.28228343       1.39613546       7.67132709
F       -0.98065264       1.55195216       8.01145695
F       -2.16669246      -0.25386734       8.87626090
F       -0.70755634      -0.57467515       7.09854322
7
Properties=species:S:1:pos:R:3 dft_info=B3LYP/def2-SVPD name=PF6 mapped_smiles="[P-:1]([F:2])([F:3])([F:4])([F:5])([F:6])[F:7]" pbc="F F F"
P       -1.99234682       0.42645371       7.37984036
F       -3.00483252      -0.71789748       6.74992616
F       -1.81385838       1.08780468       5.89110603
F       -3.28381615       1.39921009       7.67113108
F       -0.98294161       1.55311215       8.01820272
F       -2.17143433      -0.25418386       8.87496148
F       -0.70856663      -0.57135876       7.09973860
7
Properties=species:S:1:pos:R:3 dft_info=B3LYP/def2-SVPD name=PF6 mapped_smiles="[P-:1]([F:2])([F:3])([F:4])([F:5])([F:6])[F:7]" pbc="F F F"
P       -1.99389979       0.43161500       7.38099209
F       -3.00494842      -0.71029159       6.74412972
F       -1.81024771       1.09796042       5.89527598
F       -3.28584691       1.40402704       7.67118813
F       -0.98593912       1.55544339       8.02670371
F       -2.17761472      -0.25369600       8.87342171
F       -0.70999279      -0.56635382       7.10162204
7
Properties=species:S:1:pos:R:3 dft_info=B3LYP/def2-SVPD name=PF6 mapped_smiles="[P-:1]([F:2])([F:3])([F:4])([F:5])([F:6])[F:7]" pbc="F F F"
P       -1.99598807       0.43943237       7.38265104
F       -3.00552437      -0.69959695       6.73797821
F       -1.80608787       1.11110612       5.90030008
F       -3.28833330       1.41170420       7.67159048
F       -0.98947183       1.55995543       8.03638450
F       -2.18505885      -0.25103416       8.87202360
F       -0.71215877      -0.55897867       7.10431370
7
Properties=species:S:1:pos:R:3 dft_info=B3LYP/def2-SVPD name=PF6 mapped_smiles="[P-:1]([F:2])([F:3])([F:4])([F:5])([F:6])[F:7]" pbc="F F F"
P       -1.99860397       0.45101098       7.38508640
F       -3.00736569      -0.68487115       6.73329931
F       -1.80222305       1.12716431       5.90577384
F       -3.29076499       1.42397512       7.67268960
F       -0.99288737       1.56807729       8.04594839
F       -2.19318928      -0.24393266       8.87163508
F       -0.71560842      -0.54881817       7.10793532
7
Properties=species:S:1:pos:R:3 dft_info=B3LYP/def2-SVPD name=PF6 mapped_smiles="[P-:1]([F:2])([F:3])([F:4])([F:5])([F:6])[F:7]" pbc="F F F"
P       -2.00192144       0.46806170       7.38854011
F       -3.01250392      -0.66407185       6.73265832
F       -1.79959868       1.14590154       5.91085378
F       -3.29188196       1.44411528       7.67560039
F       -0.99427533       1.58111079       8.05305322
F       -2.20120569      -0.22913111       8.87328564
F       -0.72178957      -0.53564017       7.11241033
7
Properties=species:S:1:pos:R:3 dft_info=B3LYP/def2-SVPD name=PF6 mapped_smiles="[P-:1]([F:2])([F:3])([F:4])([F:5])([F:6])[F:7]" pbc="F F F"
P       -2.00624908       0.49203099       7.39387460
F       -3.02429751      -0.63452988       6.73948055
F       -1.79911103       1.16673206       5.91538581
F       -3.28989034       1.47614831       7.68103197
F       -0.99087528       1.59925845       8.05599687
F       -2.20882532      -0.20323651       8.87891936
F       -0.73320113      -0.52055911       7.11754424
7
Properties=species:S:1:pos:R:3 dft_info=B3LYP/def2-SVPD name=PF6 mapped_smiles="[P-:1]([F:2])([F:3])([F:4])([F:5])([F:6])[F:7]" pbc="F F F"
P       -2.01219729       0.52627886       7.40206855
F       -3.04646191      -0.58938690       6.75379589
F       -1.79882891       1.19352373       5.92095987
F       -3.28231162       1.52684830       7.68997376
F       -0.98028488       1.62185393       8.05757019
F       -2.21957533      -0.16313510       8.88897157
F       -0.75330361      -0.50389717       7.12459325
7
Properties=species:S:1:pos:R:3 dft_info=B3LYP/def2-SVPD name=PF6 mapped_smiles="[P-:1]([F:2])([F:3])([F:4])([F:5])([F:6])[F:7]" pbc="F F F"
P       -2.01330745       0.53825937       7.40547040
F       -3.06011848      -0.57193634       6.76778918
F       -1.80062607       1.19568262       5.91972581
F       -3.27316212       1.55118813       7.69332247
F       -0.96825669       1.62768121       8.05024026
F       -2.21994059      -0.14238868       8.89655065
F       -0.76423513      -0.50389495       7.12684054
7
Properties=species:S:1:pos:R:3 dft_info=B3LYP/def2-SVPD name=PF6 mapped_smiles="[P-:1]([F:2])([F:3])([F:4])([F:5])([F:6])[F:7]" pbc="F F F"
P       -2.01038221       0.54199309       7.40760419
F       -3.07311359      -0.56320179       6.78761553
F       -1.80205614       1.18350840       5.91414184
F       -3.25730296       1.57066521       7.69298619
F       -0.94912100       1.62538968       8.03600577
F       -2.21457795      -0.12334436       8.90609605
F       -0.77256180      -0.51452132       7.12952790
7
Properties=species:S:1:pos:R:3 dft_info=B3LYP/def2-SVPD name=PF6 mapped_smiles="[P-:1]([F:2])([F:3])([F:4])([F:5])([F:6])[F:7]" pbc="F F F"
P       -2.00527945       0.54212962       7.40789106
F       -3.07844212      -0.56042716       6.80111956
F       -1.79891705       1.16945471       5.90824415
F       -3.24324145       1.58267811       7.68729985
F       -0.93318321       1.62185097       8.02447701
F       -2.20928082      -0.10942386       8.91268148
F       -0.77501390      -0.52494527       7.13379528
7
Properties=species:S:1:pos:R:3 dft_info=B3LYP/def2-SVPD name=PF6 mapped_smiles="[P-:1]([F:2])([F:3])([F:4])([F:5])([F:6])[F:7]" pbc="F F F"
P       -1.99784666       0.53975242       7.40529880
F       -3.07791269      -0.56379628       6.81258536
F       -1.79450811       1.15110059       5.89869836
F       -3.22968759       1.58929254       7.67757888
F       -0.91855528       1.62001949       8.00857476
F       -2.20075132      -0.09630863       8.91699681
F       -0.77254064      -0.53515730       7.13798939
7
Properties=species:S:1:pos:R:3 dft_info=B3LYP/def2-SVPD name=PF6 mapped_smiles="[P-:1]([F:2])([F:3])([F:4])([F:5])([F:6])[F:7]" pbc="F F F"
P       -1.99024619       0.53631868       7.40012441
F       -3.07036373      -0.57159591       6.81559753
F       -1.78871416       1.13692535       5.88890549
F       -3.22197909       1.58784359       7.66659853
F       -0.91100971       1.62135962       7.99498175
F       -2.19237358      -0.08936170       8.91625206
F       -0.76478065      -0.54010981       7.14003693
7
Properties=species:S:1:pos:R:3 dft_info=B3LYP/def2-SVPD name=PF6 mapped_smiles="[P-:1]([F:2])([F:3])([F:4])([F:5])([F:6])[F:7]" pbc="F F F"
P       -1.97584176       0.53969023       7.38884155
F       -3.04866228      -0.57496477       6.80305065
F       -1.76639318       1.13221355       5.87561912
F       -3.21322542       1.58878999       7.64256336
F       -0.90453030       1.63226196       7.98408855
F       -2.18530209      -0.07825230       8.90707018
F       -0.74614306      -0.53487264       7.14333635
7
Properties=species:S:1:pos:R:3 dft_info=B3LYP/def2-SVPD name=PF6 mapped_smiles="[P-:1]([F:2])([F:3])([F:4])([F:5])([F:6])[F:7]" pbc="F F F"
P       -1.96518518       0.53940613       7.37608516
F       -3.02305447      -0.58225151       6.77647569
F       -1.74749579       1.13996005       5.86719933
F       -3.21471077       1.57614920       7.62489018
F       -0.90999158       1.64018502       7.98404382
F       -2.18169063      -0.08606349       8.89006657
F       -0.72508425      -0.52391007       7.13748194
7
Properties=species:S:1:pos:R:3 dft_info=B3LYP/def2-SVPD name=PF6 mapped_smiles="[P-:1]([F:2])([F:3])([F:4])([F:5])([F:6])[F:7]" pbc="F F F"
P       -1.96185578       0.54204423       7.37022877
F       -3.01532353      -0.57826592       6.76059682
F       -1.74012280       1.15238191       5.86586641
F       -3.21460107       1.57416009       7.62131629
F       -0.91174159       1.64157476       7.98841377
F       -2.18210013      -0.09257145       8.87977437
F       -0.71895648      -0.51733853       7.12947075
7
Properties=species:S:1:pos:R:3 dft_info=B3LYP/def2-SVPD name=PF6 mapped_smiles="[P-:1]([F:2])([F:3])([F:4])([F:5])([F:6])[F:7]" pbc="F F F"
P       -1.95989689       0.54852917       7.36804415
F       -3.01771872      -0.56519973       6.75397699
F       -1.73527281       1.16430428       5.86644195
F       -3.20851361       1.58417665       7.62229512
F       -0.90538027       1.64067056       7.99139729
F       -2.18283372      -0.09133575       8.87501122
F       -0.72097193      -0.51467447       7.12266806
7
Properties=species:S:1:pos:R:3 dft_info=B3LYP/def2-SVPD name=PF6 mapped_smiles="[P-:1]([F:2])([F:3])([F:4])([F:5])([F:6])[F:7]" pbc="F F F"
P       -1.95637949       0.54850099       7.36454661
F       -3.01814056      -0.55975157       6.74760131
F       -1.73248807       1.17050698       5.86548630
F       -3.20159788       1.58610958       7.62508973
F       -0.89759433       1.63453725       7.99114316
F       -2.17857523      -0.09745113       8.86909051
F       -0.72052975      -0.51671065       7.11205357
7
Properties=species:S:1:pos:R:3 dft_info=B3LYP/def2-SVPD name=PF6 mapped_smiles="[P-:1]([F:2])([F:3])([F:4])([F:5])([F:6])[F:7]" pbc="F F F"
P       -1.94432778       0.54953336       7.35496376
F       -3.01197789      -0.54987699       6.73229840
F       -1.71970025       1.18102301       5.86020203
F       -3.18433354       1.59054516       7.62425392
F       -0.88003522       1.62637958       7.98810057
F       -2.16796201      -0.10538299       8.85553697
F       -0.71311950      -0.51921373       7.09405205
7
Properties=species:S:1:pos:R:3 dft_info=B3LYP/def2-SVPD name=PF6 mapped_smiles="[P-:1]([F:2])([F:3])([F:4])([F:5])([F:6])[F:7]" pbc="F F F"
P       -1.93283399       0.54878293       7.34623453
F       -3.00246833      -0.54595216       6.71841678
F       -1.70856835       1.18797734       5.85497509
F       -3.17136372       1.58988577       7.62259619
F       -0.86662518       1.62101873       7.98447973
F       -2.15633594      -0.11405361       8.84352950
F       -0.70321076      -0.52005152       7.07898806
7
Properties=species:S:1:pos:R:3 dft_info=B3LYP/def2-SVPD name=PF6 mapped_smiles="[P-:1]([F:2])([F:3])([F:4])([F:5])([F:6])[F:7]" pbc="F F F"
P       -1.92115231       0.54971361       7.33842074
F       -2.99158866      -0.54394237       6.70937475
F       -1.69891263       1.19185915       5.84834265
F       -3.15966982       1.59023824       7.61905879
F       -0.85486921       1.62142671       7.97798518
F       -2.14379869      -0.11600013       8.83469172
F       -0.69164255      -0.51840461       7.06885226
7
Properties=species:S:1:pos:R:3 dft_info=B3LYP/def2-SVPD name=PF6 mapped_smiles="[P-:1]([F:2])([F:3])([F:4])([F:5])([F:6])[F:7]" pbc="F F F"
P       -1.90955232       0.55409221       7.33226312
F       -2.97791438      -0.54164354       6.70234160
F       -1.68909129       1.19708533       5.84257661
F       -3.15079699       1.59201214       7.61404681
F       -0.84552130       1.62804171       7.97231889
F       -2.13129010      -0.11306005       8.82818721
F       -0.67824624      -0.51137295       7.06255506
7
Properties=species:S:1:pos:R:3 dft_info=B3LYP/def2-SVPD name=PF6 mapped_smiles="[P-:1]([F:2])([F:3])([F:4])([F:5])([F:6])[F:7]" pbc="F F F"
P       -1.89467990       0.56546339       7.32687876
F       -2.95989799      -0.53496294       6.69834104
F       -1.67677262       1.20618998       5.83610128
F       -3.13988525       1.60002147       7.60710510
F       -0.83475501       1.64423531       7.96559361
F       -2.11611273      -0.09950662       8.82389002
F       -0.66034490      -0.49676213       7.06042173
7
Properties=species:S:1:pos:R:3 dft_info=B3LYP/def2-SVPD name=PF6 mapped_smiles="[P-:1]([F:2])([F:3])([F:4])([F:5])([F:6])[F:7]" pbc="F F F"
P       -1.87721540       0.58641174       7.32360013
F       -2.93787025      -0.52003511       6.69635232
F       -1.66005289       1.22261201       5.83109471
F       -3.12725691       1.61735425       7.59839723
F       -0.82202787       1.67024523       7.96078534
F       -2.10006736      -0.07505459       8.82202626
F       -0.63964121      -0.47279972       7.06248926
7
Properties=species:S:1:pos:R:3 dft_info=B3LYP/def2-SVPD name=PF6 mapped_smiles="[P-:1]([F:2])([F:3])([F:4])([F:5])([F:6])[F:7]" pbc="F F F"
P       -1.86225523       0.61067165       7.32342538
F       -2.91961709      -0.49957121       6.69636336
F       -1.64316744       1.24251003       5.82956327
F       -3.11499003       1.64001578       7.59139247
F       -0.81020066       1.69674027       7.96039024
F       -2.08886778      -0.04752427       8.82273999
F       -0.62305033      -0.44789760       7.06787316
7
Properties=species:S:1:pos:R:3 dft_info=B3LYP/def2-SVPD name=PF6 mapped_smiles="[P-:1]([F:2])([F:3])([F:4])([F:5])([F:6])[F:7]" pbc="F F F"
P       -1.85456599       0.62476784       7.32437260
F       -2.91350281      -0.48333729       6.69628308
F       -1.63220466       1.25573655       5.83058183
F       -3.10476853       1.65680502       7.58959216
F       -0.80131510       1.70777661       7.96313010
F       -2.08592046      -0.03235990       8.82335940
F       -0.61726712      -0.43722979       7.07123924
7
Properties=species:S:1:pos:R:3 dft_info=B3LYP/def2-SVPD name=PF6 mapped_smiles="[P-:1]([F:2])([F:3])([F:4])([F:5])([F:6])[F:7]" pbc="F F F"
P       -1.84642973       0.63824270       7.32522007
F       -2.90896185      -0.46254734       6.69094169
F       -1.61683120       1.27275766       5.83414919
F       -3.09133894       1.67571397       7.59012041
F       -0.78816282       1.71214515       7.97025865
F       -2.08467507      -0.02351897       8.82118181
F       -0.61441834      -0.43008959       7.07044356
7
Properties=species:S:1:pos:R:3 dft_info=B3LYP/def2-SVPD name=PF6 mapped_smiles="[P-:1]([F:2])([F:3])([F:4])([F:5])([F:6])[F:7]" pbc="F F F"
P       -1.84347881       0.64302632       7.32770790
F       -2.90885087      -0.45339760       6.69075935
F       -1.61059330       1.27967249       5.83807740
F       -3.08483145       1.68412960       7.59357577
F       -0.78250015       1.71231275       7.97603959
F       -2.08558396      -0.02035863       8.82232545
F       -0.61442794      -0.42903878       7.07255785
7
Properties=species:S:1:pos:R:3 dft_info=B3LYP/def2-SVPD name=PF6 mapped_smiles="[P-:1]([F:2])([F:3])([F:4])([F:5])([F:6])[F:7]" pbc="F F F"
P       -1.84131331       0.64869818       7.33165574
F       -2.90828784      -0.44379433       6.69074646
F       -1.60390039       1.28749205       5.84381064
F       -3.08011142       1.69294255       7.59759106
F       -0.77798592       1.71352763       7.98399483
F       -2.08769116      -0.01716718       8.82450904
F       -0.61502611      -0.42653922       7.07616055
7
Properties=species:S:1:pos:R:3 dft_info=B3LYP/def2-SVPD name=PF6 mapped_smiles="[P-:1]([F:2])([F:3])([F:4])([F:5])([F:6])[F:7]" pbc="F F F"
P       -1.84151897       0.65333712       7.33724295
F       -2.90854542      -0.43789644       6.69415272
F       -1.60129554       1.29281737       5.85023964
F       -3.07970072       1.69883854       7.60214705
F       -0.77809456       1.71685226       7.99199700
F       -2.09091085      -0.01303489       8.82931330
F       -0.61596313      -0.42300282       7.08297755
7
Properties=species:S:1:pos:R:3 dft_info=B3LYP/def2-SVPD name=PF6 mapped_smiles="[P-:1]([F:2])([F:3])([F:4])([F:5])([F:6])[F:7]" pbc="F F F"
P       -1.84300662       0.66328090       7.34802462
F       -2.90867705      -0.42776946       6.70198793
F       -1.59875537       1.30281232       5.86183976
F       -3.08173909       1.70932894       7.60981452
F       -0.78066549       1.72620837       8.00584274
F       -2.09661071      -0.00333367       8.83913712
F       -0.61749556      -0.41353988       7.09631444
7
Properties=species:S:1:pos:R:3 dft_info=B3LYP/def2-SVPD name=PF6 mapped_smiles="[P-:1]([F:2])([F:3])([F:4])([F:5])([F:6])[F:7]" pbc="F F F"
P       -1.84906788       0.67503171       7.36499081
F       -2.91178520      -0.41835806       6.71730833
F       -1.60182441       1.31312775       5.87872228
F       -3.09012161       1.71980846       7.62187024
F       -0.78961083       1.73979324       8.02444368
F       -2.10585461       0.00962111       8.85581900
F       -0.62188496      -0.40055314       7.11693778
7
Properties=species:S:1:pos:R:3 dft_info=B3LYP/def2-SVPD name=PF6 mapped_smiles="[P-:1]([F:2])([F:3])([F:4])([F:5])([F:6])[F:7]" pbc="F F F"
P       -1.85742258       0.68406507       7.38047333
F       -2.91767312      -0.41213364       6.73260387
F       -1.60996552       1.32108998       5.89365863
F       -3.10099036       1.72635805       7.63439619
F       -0.80065387       1.75121959       8.03977070
F       -2.11440663       0.01942719       8.87130114
F       -0.62814304      -0.38945153       7.13396700
7
Properties=species:S:1:pos:R:3 dft_info=B3LYP/def2-SVPD name=PF6 mapped_smiles="[P-:1]([F:2])([F:3])([F:4])([F:5])([F:6])[F:7]" pbc="F F F"
P       -1.86602672       0.68429731       7.38952855
F       -2.92598306      -0.41498671       6.74582759
F       -1.62297994       1.31874327       5.90061895
F       -3.11092811       1.72448108       7.64356041
F       -0.80961534       1.75432187       8.04398794
F       -2.11822768       0.02170566       8.88187875
F       -0.63542716      -0.38752773       7.14174516
7
Properties=species:S:1:pos:R:3 dft_info=B3LYP/def2-SVPD name=PF6 mapped_smiles="[P-:1]([F:2])([F:3])([F:4])([F:5])([F:6])[F:7]" pbc="F F F"
P       -1.86718905       0.68588967       7.39168330
F       -2.92905263      -0.41352054       6.75086170
F       -1.62793320       1.31970215       5.90174565
F       -3.11127942       1.72591825       7.64831972
F       -0.80922488       1.75601010       8.04283766
F       -2.11565199       0.02378895       8.88478989
F       -0.63720258      -0.38624400       7.14121337
7
Properties=species:S:1:pos:R:3 dft_info=B3LYP/def2-SVPD name=PF6 mapped_smiles="[P-:1]([F:2])([F:3])([F:4])([F:5])([F:6])[F:7]" pbc="F F F"
P       -1.86947009       0.68256497       7.39342313
F       -2.93358615      -0.41769297       6.75764812
F       -1.63574184       1.31450790       5.90166571
F       -3.11265827       1.72261597       7.65331572
F       -0.80913895       1.75350439       8.03911834
F       -2.11218952       0.02191571       8.88807893
F       -0.64029302      -0.38986518       7.13954446
7
Properties=species:S:1:pos:R:3 dft_info=B3LYP/def2-SVPD name=PF6 mapped_smiles="[P-:1]([F:2])([F:3])([F:4])([F:5])([F:6])[F:7]" pbc="F F F"
P       -1.86887472       0.68196162       7.39522125
F       -2.93620457      -0.41742201       6.76315721
F       -1.63944055       1.31317094       5.90245140
F       -3.11013835       1.72324877       7.65900834
F       -0.80547572       1.75226494       8.03685327
F       -2.10722947       0.02201008       8.89086296
F       -0.64147184      -0.39178239       7.13773524
7
Properties=species:S:1:pos:R:3 dft_info=B3LYP/def2-SVPD name=PF6 mapped_smiles="[P-:1]([F:2])([F:3])([F:4])([F:5])([F:6])[F:7]" pbc="F F F"
P       -1.86978944       0.67885086       7.39735334
F       -2.93929555      -0.41970034       6.76775728
F       -1.64288826       1.30952966       5.90397583
F       -3.10968398       1.72135073       7.66367070
F       -0.80417447       1.74866761       8.03649432
F       -2.10553942       0.01945007       8.89362694
F       -0.64382574      -0.39595288       7.13765743
7
Properties=species:S:1:pos:R:3 dft_info=B3LYP/def2-SVPD name=PF6 mapped_smiles="[P-:1]([F:2])([F:3])([F:4])([F:5])([F:6])[F:7]" pbc="F F F"
P       -1.87011149       0.67686599       7.39955112
F       -2.94089976      -0.42072857       6.77073608
F       -1.64315355       1.30687375       5.90595105
F       -3.10893180       1.72088059       7.66606881
F       -0.80323611       1.74611939       8.03785676
F       -2.10582368       0.01830057       8.89618571
F       -0.64526098      -0.39901771       7.13975261
7
Properties=species:S:1:pos:R:3 dft_info=B3LYP/def2-SVPD name=PF6 mapped_smiles="[P-:1]([F:2])([F:3])([F:4])([F:5])([F:6])[F:7]" pbc="F F F"
P       -1.87109550       0.67233868       7.40112029
F       -2.94224548      -0.42428812       6.77164491
F       -1.64235137       1.30205054       5.90769251
F       -3.10934755       1.71762016       7.66649878
F       -0.80402870       1.74110300       8.04028444
F       -2.10866417       0.01436257       8.89768074
F       -0.64691275      -0.40438829       7.14266719
7
Properties=species:S:1:pos:R:3 dft_info=B3LYP/def2-SVPD name=PF6 mapped_smiles="[P-:1]([F:2])([F:3])([F:4])([F:5])([F:6])[F:7]" pbc="F F F"
P       -1.87106541       0.66765822       7.40255718
F       -2.94196749      -0.42854477       6.77209440
F       -1.63907892       1.29587410       5.90900385
F       -3.10897452       1.71438039       7.66454551
F       -0.80445993       1.73636698       8.04265160
F       -2.11186844       0.01133749       8.89928654
F       -0.64721467      -0.40997506       7.14731324
7
Properties=species:S:1:pos:R:3 dft_info=B3LYP/def2-SVPD name=PF6 mapped_smiles="[P-:1]([F:2])([F:3])([F:4])([F:5])([F:6])[F:7]" pbc="F F F"
P       -1.87086659       0.66220645       7.40167669
F       -2.94054639      -0.43399428       6.76905145
F       -1.63555577       1.29017128       5.90848115
F       -3.10925054       1.70903880       7.66065888
F       -0.80589788       1.73116193       8.04396831
F       -2.11510925       0.00630206       8.89797445
F       -0.64642039      -0.41542315       7.14952516
7
Properties=species:S:1:pos:R:3 dft_info=B3LYP/def2-SVPD name=PF6 mapped_smiles="[P-:1]([F:2])([F:3])([F:4])([F:5])([F:6])[F:7]" pbc="F F F"
P       -1.86968306       0.66136044       7.40138667
F       -2.93871126      -0.43547438       6.76841115
F       -1.63310433       1.28824175       5.90789255
F       -3.10835948       1.70815868       7.65841060
F       -0.80542906       1.73078580       8.04384497
F       -2.11522882       0.00630221       8.89780734
F       -0.64486101      -0.41633305       7.15099718
7
Properties=species:S:1:pos:R:3 dft_info=B3LYP/def2-SVPD name=PF6 mapped_smiles="[P-:1]([F:2])([F:3])([F:4])([F:5])([F:6])[F:7]" pbc="F F F"
P       -1.86946305       0.66057803       7.40052028
F       -2.93819422      -0.43640621       6.76712544
F       -1.63265270       1.28768035       5.90713922
F       -3.10834305       1.70705843       7.65744832
F       -0.80561526       1.73019186       8.04328414
F       -2.11517064       0.00531160       8.89681376
F       -0.64429807      -0.41686347       7.15032469
7
Properties=species:S:1:pos:R:3 dft_info=B3LYP/def2-SVPD name=PF6 mapped_smiles="[P-:1]([F:2])([F:3])([F:4])([F:5])([F:6])[F:7]" pbc="F F F"
P       -1.86912201       0.66079761       7.40038625
F       -2.93785450      -0.43632714       6.76716141
F       -1.63236023       1.28763041       5.90687814
F       -3.10799707       1.70727856       7.65721401
F       -0.80523320       1.73047622       8.04299088
F       -2.11482765       0.00569160       8.89673328
F       -0.64398019      -0.41674839       7.15032841
