3
Properties=species:S:1:pos:R:3:prop_mu_d:R:3:prop_mu_p:R:3:prop_F_ind:R:3:prop_F_perm:R:3:prop_charges:R:1:prop_volumes:R:1 prop_E_ind=-0.0 name=water prop_E_perm=0.0 mapped_smiles="[O:1]([H:2])[H:3]" pbc="F F F"
O        2.00361657       2.45852304       2.89734173      -0.00028997       0.00466135       0.00037122      -0.00000000      -0.00000000      -0.00000000      -0.00000000      -0.00000000      -0.00000000      -0.00000000      -0.00000000      -0.00000000      -1.00000000       3.97585669
H        2.03050995       2.09320009       2.01759100      -0.00092034       0.01324158       0.02077433      -0.00000000      -0.00000000      -0.00000000      -0.00000000      -0.00000000      -0.00000000      -0.00000000      -0.00000000      -0.00000000       0.50000000       2.66802828
H        2.02698338       2.01506805       3.72317195      -0.00084435       0.01516049      -0.01894526      -0.00000000      -0.00000000       0.00000000      -0.00000000      -0.00000000      -0.00000000      -0.00000000      -0.00000000      -0.00000000       0.50000000       2.66802828
3
Properties=species:S:1:pos:R:3:prop_mu_d:R:3:prop_mu_p:R:3:prop_F_ind:R:3:prop_F_perm:R:3:prop_charges:R:1:prop_volumes:R:1 prop_E_ind=-0.0 name=water prop_E_perm=0.0 mapped_smiles="[O:1]([H:2])[H:3]" pbc="F F F"
O        1.07717681       1.44112241       1.94099605       0.00048307       0.00440241       0.00031693      -0.00000000      -0.00000000      -0.00000000      -0.00000000      -0.00000000      -0.00000000      -0.00000000      -0.00000000      -0.00000000      -1.00000000       3.97585669
H        1.06396818       1.09742773       1.08300304       0.00082053       0.01267782       0.02031519      -0.00000000      -0.00000000      -0.00000000      -0.00000000      -0.00000000      -0.00000000      -0.00000000      -0.00000000      -0.00000000       0.50000000       2.66802828
H        1.00444305       1.00245965       2.74588346       0.00221185       0.01492205      -0.01845923      -0.00000000      -0.00000000       0.00000000      -0.00000000      -0.00000000      -0.00000000      -0.00000000      -0.00000000      -0.00000000       0.50000000       2.66802828
3
Properties=species:S:1:pos:R:3:prop_mu_d:R:3:prop_mu_p:R:3:prop_F_ind:R:3:prop_F_perm:R:3:prop_charges:R:1:prop_volumes:R:1 prop_E_ind=-0.0 name=water prop_E_perm=0.0 mapped_smiles="[O:1]([H:2])[H:3]" pbc="F F F"
O        1.02200270       1.46166039       1.88570845      -0.00025579       0.00495070      -0.00029137      -0.00000000      -0.00000000      -0.00000000      -0.00000000      -0.00000000      -0.00000000      -0.00000000      -0.00000000      -0.00000000      -1.00000000       3.97585669
H        1.00457978       1.01755095       1.06176746       0.00014429       0.01540913       0.01889677      -0.00000000      -0.00000000      -0.00000000      -0.00000000      -0.00000000      -0.00000000      -0.00000000      -0.00000000      -0.00000000       0.50000000       2.66802828
H        1.08290732       1.05246317       2.74708056      -0.00166302       0.01446738      -0.02012990      -0.00000000      -0.00000000       0.00000000      -0.00000000      -0.00000000      -0.00000000      -0.00000000      -0.00000000      -0.00000000       0.50000000       2.66802828
3
Properties=species:S:1:pos:R:3:prop_mu_d:R:3:prop_mu_p:R:3:prop_F_ind:R:3:prop_F_perm:R:3:prop_charges:R:1:prop_volumes:R:1 prop_E_ind=-0.0 name=water prop_E_perm=0.0 mapped_smiles="[O:1]([H:2])[H:3]" pbc="F F F"
O        1.05996990       1.45212543       1.87147963       0.00052081       0.00478455      -0.00028719      -0.00000000      -0.00000000      -0.00000000      -0.00000000      -0.00000000      -0.00000000      -0.00000000      -0.00000000      -0.00000000      -1.00000000       3.97585669
H        1.02608800       1.08051717       1.01393628       0.00132492       0.01359830       0.01998504      -0.00000000      -0.00000000      -0.00000000      -0.00000000      -0.00000000      -0.00000000      -0.00000000      -0.00000000      -0.00000000       0.50000000       2.66802828
H        1.00515521       1.00666451       2.74539590       0.00177876       0.01500754      -0.02034195      -0.00000000      -0.00000000       0.00000000      -0.00000000      -0.00000000      -0.00000000      -0.00000000      -0.00000000      -0.00000000       0.50000000       2.66802828
3
Properties=species:S:1:pos:R:3:prop_mu_d:R:3:prop_mu_p:R:3:prop_F_ind:R:3:prop_F_perm:R:3:prop_charges:R:1:prop_volumes:R:1 prop_E_ind=-0.0 name=water prop_E_perm=0.0 mapped_smiles="[O:1]([H:2])[H:3]" pbc="F F F"
O        1.06577766       1.53436136       1.88921463      -0.00024226       0.00525346       0.00008223      -0.00000000      -0.00000000      -0.00000000      -0.00000000      -0.00000000      -0.00000000      -0.00000000      -0.00000000      -0.00000000      -1.00000000       3.97585669
H        1.09174895       1.08586240       1.03004408      -0.00083775       0.01552692       0.01985542      -0.00000000      -0.00000000      -0.00000000      -0.00000000      -0.00000000      -0.00000000      -0.00000000      -0.00000000      -0.00000000       0.50000000       2.66802828
H        1.08064878       1.09622490       2.74172902      -0.00058505       0.01536654      -0.01967124      -0.00000000      -0.00000000       0.00000000      -0.00000000      -0.00000000      -0.00000000      -0.00000000      -0.00000000      -0.00000000       0.50000000       2.66802828
