15
Properties=species:S:1:pos:R:3 name=EMC mapped_smiles="[C:1]([C:2]([O:3][C:4](=[O:5])[O:6][C:7]([H:13])([H:14])[H:15])([H:11])[H:12])([H:8])([H:9])[H:10]" pbc="F F F"
C       -3.61757342       1.64215744       3.48246280
C       -2.49282466       1.41235758       2.49136937
O       -2.96657001       0.75517685       1.29522957
C       -3.06676681      -0.57209784       1.33981224
O       -2.82021956      -1.27003787       2.29806670
O       -3.46893911      -1.00890204       0.14772437
C       -3.51499917      -2.43371006      -0.01129242
H       -3.23582017       2.20635630       4.34525932
H       -4.01562148       0.68623669       3.84526845
H       -4.43027190       2.21985377       3.02224649
H       -1.68579562       0.81029950       2.92379959
H       -2.07253438       2.35558210       2.12642067
H       -2.50516370      -2.84682245       0.09300843
H       -3.89916239      -2.60191101      -1.02121448
H       -4.18371374      -2.87788698       0.73619943
15
Properties=species:S:1:pos:R:3 name=EMC mapped_smiles="[C:1]([C:2]([O:3][C:4](=[O:5])[O:6][C:7]([H:13])([H:14])[H:15])([H:11])[H:12])([H:8])([H:9])[H:10]" pbc="F F F"
C       -3.79944182       1.66316904       3.56297616
C       -2.67469306       1.43336918       2.57188273
O       -3.14843841       0.77618845       1.37574293
C       -3.24863521      -0.55108624       1.42032560
O       -3.00208796      -1.24902627       2.37858006
O       -3.65080751      -0.98789044       0.22823773
C       -3.69686757      -2.41269846       0.06922094
H       -3.41768857       2.22736790       4.42577268
H       -4.19748988       0.70724829       3.92578181
H       -4.61214030       2.24086537       3.10275985
H       -1.86766402       0.83131110       3.00431295
H       -2.25440278       2.37659370       2.20693403
H       -2.68703210      -2.82581085       0.17352179
H       -4.08103079      -2.58089941      -0.94070112
H       -4.36558214      -2.85687538       0.81671279
15
Properties=species:S:1:pos:R:3 name=EMC mapped_smiles="[C:1]([C:2]([O:3][C:4](=[O:5])[O:6][C:7]([H:13])([H:14])[H:15])([H:11])[H:12])([H:8])([H:9])[H:10]" pbc="F F F"
C       -3.98131021       1.68418064       3.64348951
C       -2.85656145       1.45438078       2.65239608
O       -3.33030680       0.79720005       1.45625628
C       -3.43050360      -0.53007464       1.50083895
O       -3.18395635      -1.22801467       2.45909341
O       -3.83267590      -0.96687884       0.30875108
C       -3.87873596      -2.39168686       0.14973429
H       -3.59955696       2.24837950       4.50628603
H       -4.37935827       0.72825989       4.00629516
H       -4.79400869       2.26187697       3.18327320
H       -2.04953241       0.85232270       3.08482630
H       -2.43627117       2.39760530       2.28744738
H       -2.86890049      -2.80479925       0.25403514
H       -4.26289918      -2.55988781      -0.86018777
H       -4.54745053      -2.83586378       0.89722614
15
Properties=species:S:1:pos:R:3 name=EMC mapped_smiles="[C:1]([C:2]([O:3][C:4](=[O:5])[O:6][C:7]([H:13])([H:14])[H:15])([H:11])[H:12])([H:8])([H:9])[H:10]" pbc="F F F"
C       -4.25411280       1.71569804       3.76425954
C       -3.12936404       1.48589818       2.77316611
O       -3.60310939       0.82871745       1.57702631
C       -3.70330619      -0.49855724       1.62160898
O       -3.45675894      -1.19649727       2.57986344
O       -4.10547849      -0.93536144       0.42952111
C       -4.15153855      -2.36016946       0.27050432
H       -3.87235955       2.27989690       4.62705606
H       -4.65216086       0.75977729       4.12706519
H       -5.06681128       2.29339437       3.30404323
H       -2.32233500       0.88384010       3.20559633
H       -2.70907376       2.42912270       2.40821741
H       -3.14170308      -2.77328185       0.37480517
H       -4.53570177      -2.52837041      -0.73941774
H       -4.82025312      -2.80434638       1.01799617
15
Properties=species:S:1:pos:R:3 name=EMC mapped_smiles="[C:1]([C:2]([O:3][C:4](=[O:5])[O:6][C:7]([H:13])([H:14])[H:15])([H:11])[H:12])([H:8])([H:9])[H:10]" pbc="F F F"
C       -4.66331669       1.76297414       3.94541458
C       -3.53856793       1.53317428       2.95432115
O       -4.01231328       0.87599355       1.75818135
C       -4.11251008      -0.45128114       1.80276402
O       -3.86596283      -1.14922117       2.76101848
O       -4.51468238      -0.88808534       0.61067615
C       -4.56074244      -2.31289336       0.45165936
H       -4.28156344       2.32717300       4.80821110
H       -5.06136475       0.80705339       4.30822023
H       -5.47601517       2.34067047       3.48519827
H       -2.73153889       0.93111620       3.38675137
H       -3.11827765       2.47639880       2.58937245
H       -3.55090697      -2.72600575       0.55596021
H       -4.94490566      -2.48109431      -0.55826270
H       -5.22945701      -2.75707028       1.19915121
15
Properties=species:S:1:pos:R:3 name=EMC mapped_smiles="[C:1]([C:2]([O:3][C:4](=[O:5])[O:6][C:7]([H:13])([H:14])[H:15])([H:11])[H:12])([H:8])([H:9])[H:10]" pbc="F F F"
C       -5.34532316       1.84176764       4.24733966
C       -4.22057440       1.61196778       3.25624623
O       -4.69431975       0.95478705       2.06010643
C       -4.79451655      -0.37248764       2.10468910
O       -4.54796930      -1.07042767       3.06294356
O       -5.19668885      -0.80929184       0.91260123
C       -5.24274891      -2.23409986       0.75358444
H       -4.96356991       2.40596650       5.11013618
H       -5.74337122       0.88584689       4.61014531
H       -6.15802164       2.41946397       3.78712335
H       -3.41354536       1.00990970       3.68867645
H       -3.80028412       2.55519230       2.89129753
H       -4.23291344      -2.64721225       0.85788529
H       -5.62691213      -2.40230081      -0.25633762
H       -5.91146348      -2.67827678       1.50107629
15
Properties=species:S:1:pos:R:3 name=EMC mapped_smiles="[C:1]([C:2]([O:3][C:4](=[O:5])[O:6][C:7]([H:13])([H:14])[H:15])([H:11])[H:12])([H:8])([H:9])[H:10]" pbc="F F F"
C       -6.70933612       1.99935464       4.85118981
C       -5.58458736       1.76955478       3.86009638
O       -6.05833271       1.11237405       2.66395658
C       -6.15852951      -0.21490064       2.70853925
O       -5.91198226      -0.91284067       3.66679371
O       -6.56070181      -0.65170484       1.51645138
C       -6.60676187      -2.07651286       1.35743459
H       -6.32758287       2.56355350       5.71398633
H       -7.10738418       1.04343389       5.21399546
H       -7.52203460       2.57705097       4.39097350
H       -4.77755832       1.16749670       4.29252660
H       -5.16429708       2.71277930       3.49514768
H       -5.59692640      -2.48962525       1.46173544
H       -6.99092509      -2.24471381       0.34751253
H       -7.27547644      -2.52068978       2.10492644
15
Properties=species:S:1:pos:R:3 name=EMC mapped_smiles="[C:1]([C:2]([O:3][C:4](=[O:5])[O:6][C:7]([H:13])([H:14])[H:15])([H:11])[H:12])([H:8])([H:9])[H:10]" pbc="F F F"
C       -8.07334907       2.15694163       5.45503996
C       -6.94860031       1.92714177       4.46394653
O       -7.42234566       1.26996104       3.26780673
C       -7.52254246      -0.05731365       3.31238940
O       -7.27599521      -0.75525368       4.27064386
O       -7.92471476      -0.49411785       2.12030153
C       -7.97077482      -1.91892587       1.96128474
H       -7.69159582       2.72114049       6.31783648
H       -8.47139713       1.20102088       5.81784561
H       -8.88604755       2.73463796       4.99482365
H       -6.14157127       1.32508369       4.89637675
H       -6.52831003       2.87036629       4.09899783
H       -6.96093935      -2.33203826       2.06558559
H       -8.35493804      -2.08712682       0.95136268
H       -8.63948939      -2.36310279       2.70877659
15
Properties=species:S:1:pos:R:3 name=EMC mapped_smiles="[C:1]([C:2]([O:3][C:4](=[O:5])[O:6][C:7]([H:13])([H:14])[H:15])([H:11])[H:12])([H:8])([H:9])[H:10]" pbc="F F F"
C       -9.43736202       2.31452863       6.05889011
C       -8.31261326       2.08472877       5.06779668
O       -8.78635861       1.42754804       3.87165688
C       -8.88655541       0.10027335       3.91623955
O       -8.64000816      -0.59766668       4.87449401
O       -9.28872771      -0.33653085       2.72415168
C       -9.33478777      -1.76133887       2.56513489
H       -9.05560877       2.87872749       6.92168663
H       -9.83541008       1.35860788       6.42169576
H      -10.25006050       2.89222496       5.59867380
H       -7.50558422       1.48267069       5.50022690
H       -7.89232298       3.02795329       4.70284798
H       -8.32495230      -2.17445126       2.66943574
H       -9.71895099      -1.92953982       1.55521283
H      -10.00350234      -2.20551579       3.31262674
