12
Properties=species:S:1:pos:R:3 dft_info=B3LYP/def2-SVPD name=BZ mapped_smiles="[c:1]1([H:7])[c:2]([H:8])[c:3]([H:9])[c:4]([H:10])[c:5]([H:11])[c:6]1[H:12]" pbc="F F F"
C      -13.23197445     -16.86229319     -14.37822231
C      -14.57170376     -16.63426775     -14.80406841
C      -14.82217296     -15.64666265     -15.83093151
C      -13.71677669     -15.11688703     -16.55931362
C      -12.41290554     -15.52395910     -16.22651561
C      -12.21283230     -16.40941900     -15.12938579
H      -13.05829128     -17.50747293     -13.54446682
H      -15.42374691     -17.03314203     -14.32842525
H      -15.67594799     -15.13019365     -16.03830227
H      -13.93622860     -14.32712835     -17.21154674
H      -11.49196132     -15.13848776     -16.81172069
H      -11.12968716     -16.61120600     -14.98010143
12
Properties=species:S:1:pos:R:3 dft_info=B3LYP/def2-SVPD name=BZ mapped_smiles="[c:1]1([H:7])[c:2]([H:8])[c:3]([H:9])[c:4]([H:10])[c:5]([H:11])[c:6]1[H:12]" pbc="F F F"
C      -13.25357895     -16.84602526     -14.42655748
C      -14.57627796     -16.54859378     -14.78340681
C      -14.80358993     -15.62137690     -15.79875507
C      -13.70474748     -15.10155443     -16.51402416
C      -12.40554625     -15.48999251     -16.20021586
C      -12.15818811     -16.37957421     -15.13764337
H      -13.10125659     -17.52954295     -13.59043298
H      -15.43051953     -16.96744078     -14.25374005
H      -15.77570343     -15.18367940     -16.00463579
H      -13.90256465     -14.31884415     -17.24414669
H      -11.55724710     -15.10524824     -16.77227783
H      -11.11790702     -16.63350856     -14.91599475
12
Properties=species:S:1:pos:R:3 dft_info=B3LYP/def2-SVPD name=BZ mapped_smiles="[c:1]1([H:7])[c:2]([H:8])[c:3]([H:9])[c:4]([H:10])[c:5]([H:11])[c:6]1[H:12]" pbc="F F F"
C      -13.27543736     -16.86718262     -14.40728503
C      -14.55797780     -16.46203188     -14.74559512
C      -14.76849001     -15.57572547     -15.76311038
C      -13.70066740     -15.04661760     -16.49190514
C      -12.40841923     -15.43265375     -16.18243523
C      -12.18791463     -16.33541422     -15.14024757
H      -13.12188499     -17.58911908     -13.58460944
H      -15.41926947     -16.88266729     -14.18566553
H      -15.82825520     -15.25023238     -15.96706119
H      -13.88169503     -14.29467979     -17.29348755
H      -11.59184200     -15.05861669     -16.73525745
H      -11.18381991     -16.63600249     -14.87855892
12
Properties=species:S:1:pos:R:3 dft_info=B3LYP/def2-SVPD name=BZ mapped_smiles="[c:1]1([H:7])[c:2]([H:8])[c:3]([H:9])[c:4]([H:10])[c:5]([H:11])[c:6]1[H:12]" pbc="F F F"
C      -13.27966738     -16.85148637     -14.39651125
C      -14.58569386     -16.44936376     -14.70978294
C      -14.81416858     -15.53625602     -15.75037728
C      -13.72394113     -15.02527943     -16.46682947
C      -12.42066451     -15.41835622     -16.15385772
C      -12.19913405     -16.33267666     -15.11634845
H      -13.10893003     -17.57076619     -13.59248246
H      -15.43096722     -16.85782222     -14.14999072
H      -15.83454144     -15.21474991     -15.99366032
H      -13.89861971     -14.30281025     -17.26856542
H      -11.56714888     -15.02003133     -16.72293208
H      -11.17952338     -16.63780370     -14.87209775
12
Properties=species:S:1:pos:R:3 dft_info=B3LYP/def2-SVPD name=BZ mapped_smiles="[c:1]1([H:7])[c:2]([H:8])[c:3]([H:9])[c:4]([H:10])[c:5]([H:11])[c:6]1[H:12]" pbc="F F F"
C      -13.30028769     -16.82536371     -14.37747569
C      -14.60784933     -16.43024333     -14.68292729
C      -14.80795655     -15.51319833     -15.72245520
C      -13.73907315     -14.99088182     -16.45643813
C      -12.44131711     -15.39653876     -16.13393831
C      -12.22126696     -16.31276019     -15.10071966
H      -13.12293816     -17.54147419     -13.57511638
H      -15.45601522     -16.82404374     -14.12350114
H      -15.82231452     -15.19818831     -15.96291921
H      -13.91550550     -14.27399296     -17.25755466
H      -11.59048183     -14.99516823     -16.69295242
H      -11.20262648     -16.62654949     -14.86032041
12
Properties=species:S:1:pos:R:3 dft_info=B3LYP/def2-SVPD name=BZ mapped_smiles="[c:1]1([H:7])[c:2]([H:8])[c:3]([H:9])[c:4]([H:10])[c:5]([H:11])[c:6]1[H:12]" pbc="F F F"
C      -13.30557285     -16.81453690     -14.37166639
C      -14.60744467     -16.41232995     -14.68398545
C      -14.82621165     -15.49971008     -15.71674739
C      -13.74569971     -14.98981826     -16.43918297
C      -12.44435560     -15.39051227     -16.12610236
C      -12.22248779     -16.30585919     -15.09434394
H      -13.13405801     -17.53095174     -13.56705589
H      -15.45412736     -16.80535690     -14.12091014
H      -15.84245432     -15.18521504     -15.95331201
H      -13.91674003     -14.27197573     -17.24135307
H      -11.60173198     -14.98774786     -16.68506220
H      -11.20630046     -16.62236190     -14.85243830
12
Properties=species:S:1:pos:R:3 dft_info=B3LYP/def2-SVPD name=BZ mapped_smiles="[c:1]1([H:7])[c:2]([H:8])[c:3]([H:9])[c:4]([H:10])[c:5]([H:11])[c:6]1[H:12]" pbc="F F F"
C      -13.32444507     -16.79705502     -14.35400361
C      -14.62660434     -16.39231771     -14.66352530
C      -14.83994934     -15.47998546     -15.70069495
C      -13.75885733     -14.97079516     -16.42509180
C      -12.45718191     -15.37307020     -16.11542371
C      -12.24322590     -16.28805485     -15.08080435
H      -13.15112436     -17.51252141     -13.54836965
H      -15.47485500     -16.77894259     -14.09714944
H      -15.85529476     -15.16024484     -15.93544810
H      -13.92925527     -14.25032797     -17.22578758
H      -11.61153234     -14.96995366     -16.67485999
H      -11.22792284     -16.60631075     -14.83808022
12
Properties=species:S:1:pos:R:3 dft_info=B3LYP/def2-SVPD name=BZ mapped_smiles="[c:1]1([H:7])[c:2]([H:8])[c:3]([H:9])[c:4]([H:10])[c:5]([H:11])[c:6]1[H:12]" pbc="F F F"
C      -13.34848007     -16.77068681     -14.33114566
C      -14.64832060     -16.35825937     -14.64344192
C      -14.87037026     -15.44751901     -15.68261972
C      -13.78413888     -14.94543099     -16.40529647
C      -12.48496781     -15.35514432     -16.09283266
C      -12.26342281     -16.26894038     -15.05797792
H      -13.17967593     -17.48470917     -13.52282881
H      -15.49679011     -16.73850595     -14.07224698
H      -15.88521031     -15.12245544     -15.91320913
H      -13.94829300     -14.22231851     -17.20555969
H      -11.63818598     -14.95145894     -16.65421655
H      -11.24802134     -16.58813412     -14.81634541
12
Properties=species:S:1:pos:R:3 dft_info=B3LYP/def2-SVPD name=BZ mapped_smiles="[c:1]1([H:7])[c:2]([H:8])[c:3]([H:9])[c:4]([H:10])[c:5]([H:11])[c:6]1[H:12]" pbc="F F F"
C      -13.38114233     -16.74353634     -14.31044977
C      -14.68036737     -16.33012267     -14.62049160
C      -14.89243258     -15.42163971     -15.66189261
C      -13.80829947     -14.92297147     -16.38861773
C      -12.50973561     -15.33475039     -16.07820305
C      -12.29630620     -16.24678355     -15.04100202
H      -13.21199739     -17.45466160     -13.49987769
H      -15.53085517     -16.70169699     -14.04708321
H      -15.90536756     -15.09096779     -15.88980881
H      -13.97264148     -14.19860514     -17.18731807
H      -11.66263160     -14.93378158     -16.63760833
H      -11.28229582     -16.56889694     -14.79793537
12
Properties=species:S:1:pos:R:3 dft_info=B3LYP/def2-SVPD name=BZ mapped_smiles="[c:1]1([H:7])[c:2]([H:8])[c:3]([H:9])[c:4]([H:10])[c:5]([H:11])[c:6]1[H:12]" pbc="F F F"
C      -13.43412254     -16.71281455     -14.28789355
C      -14.72982907     -16.29353182     -14.60360646
C      -14.94172340     -15.39068316     -15.64844507
C      -13.85401286     -14.90241239     -16.37534984
C      -12.55809774     -15.31956672     -16.06187018
C      -12.34641219     -16.22724662     -15.02077297
H      -13.27042730     -17.41709114     -13.47048248
H      -15.58167286     -16.65369549     -14.02585757
H      -15.95244362     -15.05041890     -15.87245017
H      -14.01388100     -14.17556962     -17.17235343
H      -11.70929033     -14.92301287     -16.61984101
H      -11.33314221     -16.54925728     -14.77437059
12
Properties=species:S:1:pos:R:3 dft_info=B3LYP/def2-SVPD name=BZ mapped_smiles="[c:1]1([H:7])[c:2]([H:8])[c:3]([H:9])[c:4]([H:10])[c:5]([H:11])[c:6]1[H:12]" pbc="F F F"
C      -13.52346004     -16.67556802     -14.26596881
C      -14.81932147     -16.25782665     -14.58109043
C      -15.00548242     -15.36153987     -15.63566296
C      -13.91959861     -14.88100129     -16.37046271
C      -12.62677668     -15.30252320     -16.05357184
C      -12.43319419     -16.20275597     -15.00264544
H      -13.36168935     -17.36908350     -13.43935586
H      -15.67563686     -16.60178415     -14.00076502
H      -16.01188758     -15.00803446     -15.86028177
H      -14.07872486     -14.15295975     -17.16644216
H      -11.77174877     -14.91625014     -16.60859262
H      -11.42265763     -16.52629335     -14.74734356
12
Properties=species:S:1:pos:R:3 dft_info=B3LYP/def2-SVPD name=BZ mapped_smiles="[c:1]1([H:7])[c:2]([H:8])[c:3]([H:9])[c:4]([H:10])[c:5]([H:11])[c:6]1[H:12]" pbc="F F F"
C      -13.53059384     -16.68855293     -14.27854753
C      -14.82371349     -16.26823288     -14.60210675
C      -15.01520343     -15.37199048     -15.65582627
C      -13.92457269     -14.89341979     -16.38488067
C      -12.63300405     -15.31568772     -16.06277101
C      -12.43811830     -16.21561323     -15.01158542
H      -13.37362082     -17.38300931     -13.45165750
H      -15.68069154     -16.61702420     -14.02614504
H      -16.02226473     -15.02441060     -15.88663148
H      -14.08001181     -14.17027724     -17.18609677
H      -11.77729831     -14.93239396     -16.61872426
H      -11.42813456     -16.53964679     -14.75493034
12
Properties=species:S:1:pos:R:3 dft_info=B3LYP/def2-SVPD name=BZ mapped_smiles="[c:1]1([H:7])[c:2]([H:8])[c:3]([H:9])[c:4]([H:10])[c:5]([H:11])[c:6]1[H:12]" pbc="F F F"
C      -13.61124281     -16.67760426     -14.28808335
C      -14.89966478     -16.25160348     -14.62472501
C      -15.08458473     -15.35830757     -15.68264128
C      -13.97974488     -14.89341151     -16.39975419
C      -12.69299088     -15.32166962     -16.06403023
C      -12.50461622     -16.21715102     -15.00779698
H      -13.46859405     -17.37213419     -13.45850368
H      -15.76171923     -16.60140718     -14.05751140
H      -16.08912773     -15.01760343     -15.93226591
H      -14.12197071     -14.18334782     -17.21522502
H      -11.83236932     -14.95011266     -16.62133648
H      -11.49946334     -16.54944950     -14.74266500
12
Properties=species:S:1:pos:R:3 dft_info=B3LYP/def2-SVPD name=BZ mapped_smiles="[c:1]1([H:7])[c:2]([H:8])[c:3]([H:9])[c:4]([H:10])[c:5]([H:11])[c:6]1[H:12]" pbc="F F F"
C      -13.75914137     -16.66614308     -14.28622578
C      -15.02758864     -16.21804065     -14.66715053
C      -15.19448227     -15.33104894     -15.73482669
C      -14.07445640     -14.88061398     -16.43696770
C      -12.80185582     -15.32346874     -16.06755564
C      -12.64539246     -16.21177840     -14.99910288
H      -13.64104577     -17.35876579     -13.45063022
H      -15.90563972     -16.55931708     -14.12098794
H      -16.19315225     -14.99751584     -16.01275510
H      -14.19352918     -14.18773714     -17.27093656
H      -11.92570446     -14.97341695     -16.61613454
H      -11.64775546     -16.55358044     -14.71929254
12
Properties=species:S:1:pos:R:3 dft_info=B3LYP/def2-SVPD name=BZ mapped_smiles="[c:1]1([H:7])[c:2]([H:8])[c:3]([H:9])[c:4]([H:10])[c:5]([H:11])[c:6]1[H:12]" pbc="F F F"
C      -13.77530150     -16.66217658     -14.30958965
C      -15.04835725     -16.22524672     -14.68726884
C      -15.19369206     -15.33752506     -15.75672724
C      -14.06631962     -14.88776337     -16.44732571
C      -12.79360429     -15.32659462     -16.07362253
C      -12.64717693     -16.21516677     -15.00471884
H      -13.66242362     -17.35465269     -13.47360064
H      -15.92955706     -16.56758866     -14.14668960
H      -16.18715553     -14.99869593     -16.04549040
H      -14.18058282     -14.19142111     -17.27890922
H      -11.91448055     -14.97298053     -16.61465510
H      -11.65362305     -16.55980168     -14.71335982
12
Properties=species:S:1:pos:R:3 dft_info=B3LYP/def2-SVPD name=BZ mapped_smiles="[c:1]1([H:7])[c:2]([H:8])[c:3]([H:9])[c:4]([H:10])[c:5]([H:11])[c:6]1[H:12]" pbc="F F F"
C      -13.82790414     -16.64674297     -14.31494697
C      -15.09399789     -16.20534047     -14.70934185
C      -15.21502839     -15.31811415     -15.78234189
C      -14.07876253     -14.87056642     -16.45965195
C      -12.81468279     -15.31602683     -16.06521947
C      -12.68800923     -16.20478122     -14.99426474
H      -13.72900489     -17.33783511     -13.47618889
H      -15.98493896     -16.53966741     -14.17936361
H      -16.20200347     -14.96973973     -16.08198896
H      -14.17820775     -14.16880395     -17.28865167
H      -11.92580548     -14.96247617     -16.58937274
H      -11.69990555     -16.55151157     -14.68715917
12
Properties=species:S:1:pos:R:3 dft_info=B3LYP/def2-SVPD name=BZ mapped_smiles="[c:1]1([H:7])[c:2]([H:8])[c:3]([H:9])[c:4]([H:10])[c:5]([H:11])[c:6]1[H:12]" pbc="F F F"
C      -13.96146905     -16.59222806     -14.33891085
C      -15.21151853     -16.14223524     -14.77143164
C      -15.27024676     -15.25310054     -15.84768654
C      -14.09673423     -14.82300998     -16.47173001
C      -12.85082223     -15.27949094     -16.03317869
C      -12.78120748     -16.17123400     -14.96103883
H      -13.90466982     -17.28248229     -13.49605026
H      -16.12557719     -16.46076297     -14.27062141
H      -16.23622770     -14.87659572     -16.18155927
H      -14.15218189     -14.10669579     -17.29226280
H      -11.93837693     -14.92330710     -16.51226441
H      -11.81260604     -16.52849824     -14.60695785
12
Properties=species:S:1:pos:R:3 dft_info=B3LYP/def2-SVPD name=BZ mapped_smiles="[c:1]1([H:7])[c:2]([H:8])[c:3]([H:9])[c:4]([H:10])[c:5]([H:11])[c:6]1[H:12]" pbc="F F F"
C      -13.92347063     -16.59842393     -14.34047667
C      -15.16345438     -16.13696786     -14.78852859
C      -15.21412168     -15.23660212     -15.85635872
C      -14.03831972     -14.79807233     -16.46989846
C      -12.80020471     -15.26276124     -16.01891235
C      -12.74372871     -16.16554688     -14.95462920
H      -13.87577335     -17.29726400     -13.50400081
H      -16.08304091     -16.45925127     -14.30104348
H      -16.17826879     -14.85729557     -16.19402990
H      -14.08468321     -14.07349498     -17.28374854
H      -11.88108955     -14.90259210     -16.48251123
H      -11.77759775     -16.52391431     -14.59539415
12
Properties=species:S:1:pos:R:3 dft_info=B3LYP/def2-SVPD name=BZ mapped_smiles="[c:1]1([H:7])[c:2]([H:8])[c:3]([H:9])[c:4]([H:10])[c:5]([H:11])[c:6]1[H:12]" pbc="F F F"
C      -13.98504587     -16.59780000     -14.34831031
C      -15.21321933     -16.12184909     -14.81465833
C      -15.25114827     -15.22001775     -15.88133724
C      -14.06777139     -14.78970893     -16.48519235
C      -12.84031507     -15.26737725     -16.02036742
C      -12.80016240     -16.17164889     -14.95565193
H      -13.95294222     -17.29753164     -13.51165399
H      -16.13963914     -16.44123017     -14.34037388
H      -16.21066036     -14.84365246     -16.23446529
H      -14.10096290     -14.07242502     -17.30600842
H      -11.91317558     -14.92104299     -16.47848250
H      -11.83940587     -16.53710030     -14.58941191
12
Properties=species:S:1:pos:R:3 dft_info=B3LYP/def2-SVPD name=BZ mapped_smiles="[c:1]1([H:7])[c:2]([H:8])[c:3]([H:9])[c:4]([H:10])[c:5]([H:11])[c:6]1[H:12]" pbc="F F F"
C      -13.97494447     -16.60127232     -14.34772281
C      -15.20429957     -16.12026433     -14.80666746
C      -15.24738626     -15.21704475     -15.87147114
C      -14.06369544     -14.79017518     -16.47787428
C      -12.83483515     -15.27124019     -16.02079223
C      -12.79102451     -16.17812530     -14.95825305
H      -13.94209384     -17.30231298     -13.51219555
H      -16.12870747     -16.43684639     -14.32678661
H      -16.20774771     -14.83730439     -16.21949287
H      -14.09803822     -14.07089286     -17.29686734
H      -11.90900806     -14.92619063     -16.48213178
H      -11.82954171     -16.54564769     -14.59602417
12
Properties=species:S:1:pos:R:3 dft_info=B3LYP/def2-SVPD name=BZ mapped_smiles="[c:1]1([H:7])[c:2]([H:8])[c:3]([H:9])[c:4]([H:10])[c:5]([H:11])[c:6]1[H:12]" pbc="F F F"
C      -13.95332176     -16.60734540     -14.35386190
C      -15.18433354     -16.11587951     -14.79850924
C      -15.22902920     -15.20663559     -15.85735424
C      -14.04182151     -14.78744212     -16.46374710
C      -12.81204015     -15.27759071     -16.01943410
C      -12.76663487     -16.19206882     -14.96335391
H      -13.92244373     -17.31363024     -13.52277186
H      -16.10674396     -16.42664663     -14.31084334
H      -16.18812562     -14.81432460     -16.19628471
H      -14.07430392     -14.06034878     -17.27586148
H      -11.88680015     -14.93384791     -16.48264686
H      -11.80623331     -16.56783472     -14.60662772
12
Properties=species:S:1:pos:R:3 dft_info=B3LYP/def2-SVPD name=BZ mapped_smiles="[c:1]1([H:7])[c:2]([H:8])[c:3]([H:9])[c:4]([H:10])[c:5]([H:11])[c:6]1[H:12]" pbc="F F F"
C      -13.98132429     -16.61255505     -14.37006777
C      -15.20332651     -16.10323581     -14.81982361
C      -15.22906672     -15.18641759     -15.87266657
C      -14.03322226     -14.77725711     -16.46911564
C      -12.81274308     -15.28499660     -16.01947194
C      -12.78611173     -16.20687262     -14.96889252
H      -13.96480198     -17.32525556     -13.54401622
H      -16.13243020     -16.40547935     -14.33961915
H      -16.18076809     -14.77897273     -16.21464286
H      -14.05146596     -14.04417403     -17.27630651
H      -11.87993612     -14.94970981     -16.47397431
H      -11.83277017     -16.59744300     -14.60919144
12
Properties=species:S:1:pos:R:3 dft_info=B3LYP/def2-SVPD name=BZ mapped_smiles="[c:1]1([H:7])[c:2]([H:8])[c:3]([H:9])[c:4]([H:10])[c:5]([H:11])[c:6]1[H:12]" pbc="F F F"
C      -14.00934442     -16.64065658     -14.40495884
C      -15.21509338     -16.09243977     -14.85260275
C      -15.21109794     -15.15908470     -15.89104089
C      -14.00586623     -14.76814182     -16.48021401
C      -12.80254468     -15.31524539     -16.03086545
C      -12.80336417     -16.25389573     -14.99435800
H      -14.01407414     -17.36807768     -13.59160682
H      -16.15365957     -16.37787199     -14.38143556
H      -16.15090186     -14.72198391     -16.22849604
H      -14.00294325     -14.02304060     -17.27650298
H      -11.85925439     -14.99959478     -16.47814545
H      -11.86154077     -16.67722482     -14.64143446
12
Properties=species:S:1:pos:R:3 dft_info=B3LYP/def2-SVPD name=BZ mapped_smiles="[c:1]1([H:7])[c:2]([H:8])[c:3]([H:9])[c:4]([H:10])[c:5]([H:11])[c:6]1[H:12]" pbc="F F F"
C      -14.00519119     -16.65058266     -14.41477233
C      -15.20666787     -16.08966957     -14.85712580
C      -15.19763299     -15.15022869     -15.89013200
C      -13.98914241     -14.76653186     -16.47687856
C      -12.78698943     -15.32373183     -16.03608333
C      -12.79792696     -16.26856953     -15.00560910
H      -14.01301773     -17.38336077     -13.60618599
H      -16.14690445     -16.36996528     -14.38659678
H      -16.13424194     -14.70244906     -16.22233328
H      -13.98212375     -14.01608576     -17.26793494
H      -11.84230116     -15.01305278     -16.48431245
H      -11.85959100     -16.70364000     -14.65793259
12
Properties=species:S:1:pos:R:3 dft_info=B3LYP/def2-SVPD name=BZ mapped_smiles="[c:1]1([H:7])[c:2]([H:8])[c:3]([H:9])[c:4]([H:10])[c:5]([H:11])[c:6]1[H:12]" pbc="F F F"
C      -13.99847538     -16.65525528     -14.42075139
C      -15.19810262     -16.08723089     -14.85792737
C      -15.18502068     -15.14354069     -15.88745288
C      -13.97782204     -14.76068168     -16.47650136
C      -12.77973168     -15.32841622     -16.03689843
C      -12.78905725     -16.27804635     -15.01121009
H      -14.00772968     -17.39126033     -13.61517206
H      -16.13937773     -16.36441573     -14.38778108
H      -16.12059117     -14.68985580     -16.21420522
H      -13.96817448     -14.00615604     -17.26366442
H      -11.83488157     -15.02042287     -16.48635353
H      -11.85197330     -16.71984030     -14.66832506
12
Properties=species:S:1:pos:R:3 dft_info=B3LYP/def2-SVPD name=BZ mapped_smiles="[c:1]1([H:7])[c:2]([H:8])[c:3]([H:9])[c:4]([H:10])[c:5]([H:11])[c:6]1[H:12]" pbc="F F F"
C      -14.00080581     -16.64941748     -14.41610195
C      -15.20249219     -16.08732168     -14.85537113
C      -15.19285947     -15.14599982     -15.88710454
C      -13.98637038     -14.76063740     -16.47614521
C      -12.78609586     -15.32238555     -16.03502935
C      -12.79246353     -16.26914263     -15.00666508
H      -14.00782541     -17.38290840     -13.60823477
H      -16.14286034     -16.36720028     -14.38488291
H      -16.12996073     -14.69698784     -16.21612270
H      -13.97912772     -14.00822681     -17.26537136
H      -11.84218342     -15.01189747     -16.48465799
H      -11.85383337     -16.70552177     -14.66114215
12
Properties=species:S:1:pos:R:3 dft_info=B3LYP/def2-SVPD name=BZ mapped_smiles="[c:1]1([H:7])[c:2]([H:8])[c:3]([H:9])[c:4]([H:10])[c:5]([H:11])[c:6]1[H:12]" pbc="F F F"
C      -14.00733183     -16.63939529     -14.41026239
C      -15.20983056     -16.08111591     -14.85211613
C      -15.20345067     -15.14133440     -15.88523877
C      -13.99600494     -14.75535343     -16.47208945
C      -12.79295862     -15.31128438     -16.03126910
C      -12.80009464     -16.25593914     -15.00104129
H      -14.01297011     -17.37100815     -13.60066380
H      -16.14970927     -16.36305465     -14.38188385
H      -16.14140213     -14.69548874     -16.21649443
H      -13.99012461     -14.00424145     -17.26250509
H      -11.84948349     -14.99862794     -16.48043331
H      -11.86073382     -16.68818481     -14.65254275
12
Properties=species:S:1:pos:R:3 dft_info=B3LYP/def2-SVPD name=BZ mapped_smiles="[c:1]1([H:7])[c:2]([H:8])[c:3]([H:9])[c:4]([H:10])[c:5]([H:11])[c:6]1[H:12]" pbc="F F F"
C      -14.01063668     -16.62866625     -14.40620717
C      -15.21368329     -16.07128370     -14.84750318
C      -15.20789568     -15.13088015     -15.88010014
C      -14.00123090     -14.74318183     -16.46725992
C      -12.79836654     -15.29915128     -16.02579881
C      -12.80323789     -16.24448946     -14.99627512
H      -14.01571520     -17.36034773     -13.59668927
H      -16.15336722     -16.35423349     -14.37759897
H      -16.14649901     -14.68584379     -16.21071592
H      -13.99563762     -13.99138858     -17.25704250
H      -11.85523556     -14.98526020     -16.47466125
H      -11.86341752     -16.67556229     -14.64749031
12
Properties=species:S:1:pos:R:3 dft_info=B3LYP/def2-SVPD name=BZ mapped_smiles="[c:1]1([H:7])[c:2]([H:8])[c:3]([H:9])[c:4]([H:10])[c:5]([H:11])[c:6]1[H:12]" pbc="F F F"
C      -14.00846928     -16.61892415     -14.40367286
C      -15.21263815     -16.06213356     -14.84243198
C      -15.20835889     -15.11980240     -15.87327025
C      -14.00364888     -14.72899342     -16.46210049
C      -12.80032427     -15.28539378     -16.02237695
C      -12.80215006     -16.23264758     -14.99464531
H      -14.01158584     -17.35205467     -13.59545039
H      -16.15151854     -16.34703905     -14.37251020
H      -16.14801391     -14.67527215     -16.20133838
H      -13.99983919     -13.97571366     -17.25044264
H      -11.85815999     -14.96985518     -16.47203572
H      -11.86137483     -16.66357947     -14.64820099
12
Properties=species:S:1:pos:R:3 dft_info=B3LYP/def2-SVPD name=BZ mapped_smiles="[c:1]1([H:7])[c:2]([H:8])[c:3]([H:9])[c:4]([H:10])[c:5]([H:11])[c:6]1[H:12]" pbc="F F F"
C      -14.01566146     -16.60726820     -14.40472021
C      -15.21849819     -16.04761211     -14.84382772
C      -15.21074867     -15.10212379     -15.87160066
C      -14.00450958     -14.71049552     -16.45692806
C      -12.80291387     -15.26991007     -16.01663332
C      -12.80783936     -16.22061919     -14.99200800
H      -14.02135362     -17.34300786     -13.59888010
H      -16.15842006     -16.33288422     -14.37645675
H      -16.14915183     -14.65497779     -16.19970031
H      -13.99825151     -13.95436790     -17.24249073
H      -11.85943782     -14.95361680     -16.46292799
H      -11.86815119     -16.65369242     -14.64526035
12
Properties=species:S:1:pos:R:3 dft_info=B3LYP/def2-SVPD name=BZ mapped_smiles="[c:1]1([H:7])[c:2]([H:8])[c:3]([H:9])[c:4]([H:10])[c:5]([H:11])[c:6]1[H:12]" pbc="F F F"
C      -14.01366368     -16.60537969     -14.40517969
C      -15.21717151     -16.04729715     -14.84473528
C      -15.21052734     -15.10139245     -15.87197102
C      -14.00458315     -14.70754557     -16.45655194
C      -12.80224812     -15.26505058     -16.01617319
C      -12.80649894     -16.21630294     -14.99194199
H      -14.01865017     -17.34160406     -13.59976581
H      -16.15678651     -16.33444017     -14.37792092
H      -16.14943226     -14.65567252     -16.20051709
H      -13.99938082     -13.95121234     -17.24190948
H      -11.85900171     -14.94696061     -16.46169673
H      -11.86619424     -16.64799056     -14.64516759
12
Properties=species:S:1:pos:R:3 dft_info=B3LYP/def2-SVPD name=BZ mapped_smiles="[c:1]1([H:7])[c:2]([H:8])[c:3]([H:9])[c:4]([H:10])[c:5]([H:11])[c:6]1[H:12]" pbc="F F F"
C      -14.01429588     -16.60424322     -14.40897119
C      -15.21745563     -16.04636890     -14.85011334
C      -15.20954449     -15.09873432     -15.87560544
C      -14.00250038     -14.70282050     -16.45678421
C      -12.80054684     -15.25975988     -16.01503890
C      -12.80643875     -16.21290002     -14.99243816
H      -14.02050796     -17.34196081     -13.60493231
H      -16.15769022     -16.33523932     -14.38552353
H      -16.14801220     -14.65316848     -16.20566230
H      -13.99644788     -13.94517235     -17.24086409
H      -11.85655294     -14.93982352     -16.45764111
H      -11.86639007     -16.64417953     -14.64448911
12
Properties=species:S:1:pos:R:3 dft_info=B3LYP/def2-SVPD name=BZ mapped_smiles="[c:1]1([H:7])[c:2]([H:8])[c:3]([H:9])[c:4]([H:10])[c:5]([H:11])[c:6]1[H:12]" pbc="F F F"
C      -14.01549389     -16.60331137     -14.41574669
C      -15.21783839     -16.04539361     -14.85933697
C      -15.20747811     -15.09424187     -15.88145066
C      -13.99861852     -14.69470586     -16.45656971
C      -12.79755632     -15.25135684     -16.01235495
C      -12.80607629     -16.20821696     -14.99316100
H      -14.02383586     -17.34387738     -13.61436071
H      -16.15935273     -16.33710446     -14.39892963
H      -16.14519206     -14.64869756     -16.21378750
H      -13.99070215     -13.93429773     -17.23795181
H      -11.85228981     -14.92826041     -16.44990213
H      -11.86665239     -16.63912756     -14.64308800
12
Properties=species:S:1:pos:R:3 dft_info=B3LYP/def2-SVPD name=BZ mapped_smiles="[c:1]1([H:7])[c:2]([H:8])[c:3]([H:9])[c:4]([H:10])[c:5]([H:11])[c:6]1[H:12]" pbc="F F F"
C      -14.01661079     -16.60393300     -14.41964801
C      -15.21832595     -16.04562225     -14.86429259
C      -15.20629599     -15.09198509     -15.88416502
C      -13.99649754     -14.69039140     -16.45578638
C      -12.79608786     -15.24750023     -16.01024101
C      -12.80604774     -16.20682210     -14.99345393
H      -14.02611100     -17.34643466     -13.62008292
H      -16.16072493     -16.33885761     -14.40657044
H      -16.14356333     -14.64617932     -16.21744702
H      -13.98721636     -13.92799859     -17.23520597
H      -11.85013143     -14.92267028     -16.44499882
H      -11.86715229     -16.63795943     -14.64223055
12
Properties=species:S:1:pos:R:3 dft_info=B3LYP/def2-SVPD name=BZ mapped_smiles="[c:1]1([H:7])[c:2]([H:8])[c:3]([H:9])[c:4]([H:10])[c:5]([H:11])[c:6]1[H:12]" pbc="F F F"
C      -14.01736749     -16.60526565     -14.42109564
C      -15.21873657     -16.04644911     -14.86578002
C      -15.20594298     -15.09115316     -15.88421020
C      -13.99584180     -14.68847245     -16.45424015
C      -12.79573365     -15.24621439     -16.00841316
C      -12.80621739     -16.20711616     -14.99323656
H      -14.02726624     -17.34906435     -13.62275167
H      -16.16158167     -16.34045840     -14.40945062
H      -16.14305377     -14.64501196     -16.21747319
H      -13.98585224     -13.92471655     -17.23230055
H      -11.84953166     -14.92047657     -16.44195962
H      -11.86762445     -16.63870365     -14.64174102
12
Properties=species:S:1:pos:R:3 dft_info=B3LYP/def2-SVPD name=BZ mapped_smiles="[c:1]1([H:7])[c:2]([H:8])[c:3]([H:9])[c:4]([H:10])[c:5]([H:11])[c:6]1[H:12]" pbc="F F F"
C      -14.01799527     -16.60698784     -14.42137244
C      -15.21919558     -16.04763011     -14.86566078
C      -15.20607206     -15.09103246     -15.88294428
C      -13.99589648     -14.68764121     -16.45217367
C      -12.79591272     -15.24599849     -16.00660994
C      -12.80658544     -16.20814272     -14.99268789
H      -14.02801044     -17.35185345     -13.62402897
H      -16.16224232     -16.34217473     -14.41009977
H      -16.14312536     -14.64448031     -16.21578747
H      -13.98557234     -13.92277376     -17.22912110
H      -11.84963790     -14.91965075     -16.43953635
H      -11.86815257     -16.64025346     -14.64139780
12
Properties=species:S:1:pos:R:3 dft_info=B3LYP/def2-SVPD name=BZ mapped_smiles="[c:1]1([H:7])[c:2]([H:8])[c:3]([H:9])[c:4]([H:10])[c:5]([H:11])[c:6]1[H:12]" pbc="F F F"
C      -14.01894703     -16.60984217     -14.42127989
C      -15.21998751     -16.04964908     -14.86485827
C      -15.20653315     -15.09117976     -15.88041796
C      -13.99625837     -14.68676896     -16.44861027
C      -12.79639838     -15.24596943     -16.00368246
C      -12.80732360     -16.20996202     -14.99156059
H      -14.02912785     -17.35630732     -13.62543467
H      -16.16321620     -16.34503395     -14.41023145
H      -16.14350349     -14.64394484     -16.21253203
H      -13.98563044     -13.92026374     -17.22391629
H      -11.85003197     -14.91872929     -16.43572633
H      -11.86904649     -16.64286170     -14.64081918
12
Properties=species:S:1:pos:R:3 dft_info=B3LYP/def2-SVPD name=BZ mapped_smiles="[c:1]1([H:7])[c:2]([H:8])[c:3]([H:9])[c:4]([H:10])[c:5]([H:11])[c:6]1[H:12]" pbc="F F F"
C      -14.01988001     -16.61245153     -14.42102725
C      -15.22079981     -16.05151253     -14.86408495
C      -15.20702366     -15.09146419     -15.87811331
C      -13.99656124     -14.68617982     -16.44531172
C      -12.79683926     -15.24603942     -16.00094173
C      -12.80812703     -16.21165584     -14.99033500
H      -14.03034731     -17.36031418     -13.62649249
H      -16.16415459     -16.34768805     -14.41023698
H      -16.14386110     -14.64357183     -16.20969050
H      -13.98572058     -13.91826322     -17.21920231
H      -11.85032773     -14.91802690     -16.43206498
H      -11.86996049     -16.64522171     -14.64012253
12
Properties=species:S:1:pos:R:3 dft_info=B3LYP/def2-SVPD name=BZ mapped_smiles="[c:1]1([H:7])[c:2]([H:8])[c:3]([H:9])[c:4]([H:10])[c:5]([H:11])[c:6]1[H:12]" pbc="F F F"
C      -14.02040545     -16.61344289     -14.42083739
C      -15.22122896     -16.05216663     -14.86389021
C      -15.20717474     -15.09157860     -15.87733594
C      -13.99649814     -14.68603620     -16.44399152
C      -12.79691879     -15.24613632     -15.99970954
C      -12.80857241     -16.21235764     -14.98961634
H      -14.03119162     -17.36181225     -13.62677825
H      -16.16466072     -16.34863359     -14.41038479
H      -16.14386943     -14.64335827     -16.20888060
H      -13.98551256     -13.91761321     -17.21737560
H      -11.85025052     -14.91789067     -16.43029843
H      -11.87047773     -16.64618587     -14.63954214
12
Properties=species:S:1:pos:R:3 dft_info=B3LYP/def2-SVPD name=BZ mapped_smiles="[c:1]1([H:7])[c:2]([H:8])[c:3]([H:9])[c:4]([H:10])[c:5]([H:11])[c:6]1[H:12]" pbc="F F F"
C      -14.02065748     -16.61337637     -14.42070496
C      -15.22137456     -16.05200746     -14.86401451
C      -15.20706693     -15.09149663     -15.87749278
C      -13.99621877     -14.68610037     -16.44394754
C      -12.79677574     -15.24625461     -15.99945627
C      -12.80872800     -16.21242965     -14.98928397
H      -14.03170335     -17.36169589     -13.62660019
H      -16.16488169     -16.34839386     -14.41060770
H      -16.14364227     -14.64317319     -16.20925106
H      -13.98507489     -13.91772497     -17.21737958
H      -11.84998065     -14.91813098     -16.42985466
H      -11.87071041     -16.64631030     -14.63907143
